// test_add_meters.glm

module powerflow;

object transformer_configuration
{
    connection_type WYEWYE;
}