#define CASE=14
#ifexists "../case.glm"
#define DIR=..
#endif

module pypower
{
    maximum_timestep 3600;
    save_case TRUE;
}

module powerflow;
object pypower.load
{
    name load_1;
    parent pp_bus_2;
    Vn 12.5 kV;
    P 21.7+12.7j;
    status ONLINE;
}

#include "${DIR:-.}/case.glm"

